<?xml version="1.0" encoding="UTF-8"?>

<!-- generated on 2023-05-05 11:03:54 by Eclipse SUMO netedit Version 1.17.0
<configuration xmlns:xsi="http://www.w3.org/2001/XMLSchema-instance" xsi:noNamespaceSchemaLocation="http://sumo.dlr.de/xsd/netconvertConfiguration.xsd">

    <input>
        <route-files value="C:\Users\Sai\Documents\Test1\dem.rou.xml"/>
        <sumo-net-file value="C:\Users\Sai\Downloads\env.net.xml"/>
    </input>

    <output>
        <output-file value="C:\Users\Sai\Downloads\env.net.xml"/>
    </output>

    <processing>
        <offset.disable-normalization value="true"/>
    </processing>

    <junctions>
        <no-internal-links value="false"/>
        <no-turnarounds value="true"/>
    </junctions>

    <pedestrian>
        <walkingareas value="true"/>
    </pedestrian>

    <netedit>
        <new-network value="false"/>
    </netedit>

</configuration>
-->

<net version="1.16" junctionCornerDetail="5" walkingareas="true" limitTurnSpeed="5.50" xmlns:xsi="http://www.w3.org/2001/XMLSchema-instance" xsi:noNamespaceSchemaLocation="http://sumo.dlr.de/xsd/net_file.xsd">

    <location netOffset="0.00,0.00" convBoundary="-70.90,30.61,92.32,146.65" origBoundary="10000000000.00,10000000000.00,-10000000000.00,-10000000000.00" projParameter="!"/>

    <edge id=":J0_0" function="internal">
        <lane id=":J0_0_0" index="0" disallow="pedestrian" speed="7.17" length="5.45" shape="-9.82,93.64 -12.62,92.53 -15.05,92.32"/>
    </edge>
    <edge id=":J0_1" function="internal">
        <lane id=":J0_1_0" index="0" disallow="pedestrian" speed="13.89" length="39.25" shape="-9.82,93.64 -18.68,88.23 -26.02,82.36 -32.87,75.81 -40.28,68.42"/>
        <lane id=":J0_1_1" index="1" disallow="pedestrian" speed="13.89" length="39.25" shape="-8.34,90.80 -17.08,85.49 -24.16,79.80 -30.75,73.45 -38.04,66.14"/>
    </edge>
    <edge id=":J0_3" function="internal">
        <lane id=":J0_3_0" index="0" disallow="pedestrian" speed="12.19" length="8.78" shape="-8.34,90.80 -14.89,84.96"/>
    </edge>
    <edge id=":J0_28" function="internal">
        <lane id=":J0_28_0" index="0" disallow="pedestrian" speed="7.17" length="4.51" shape="-15.05,92.32 -17.11,93.03 -18.80,94.64"/>
    </edge>
    <edge id=":J0_29" function="internal">
        <lane id=":J0_29_0" index="0" disallow="pedestrian" speed="12.19" length="29.87" shape="-14.89,84.96 -15.05,84.82 -21.81,75.23 -26.24,65.29 -25.97,58.26"/>
    </edge>
    <edge id=":J0_4" function="internal">
        <lane id=":J0_4_0" index="0" disallow="pedestrian" speed="7.17" length="5.45" shape="-9.82,93.64 -12.62,92.53 -15.05,92.32"/>
    </edge>
    <edge id=":J0_5" function="internal">
        <lane id=":J0_5_0" index="0" disallow="pedestrian" speed="13.89" length="39.18" shape="-9.82,93.64 -16.81,89.21 -24.36,83.23 -32.25,76.14 -40.28,68.42"/>
        <lane id=":J0_5_1" index="1" disallow="pedestrian" speed="13.89" length="39.18" shape="-8.34,90.80 -15.21,86.47 -22.49,80.67 -30.13,73.77 -38.04,66.14"/>
    </edge>
    <edge id=":J0_7" function="internal">
        <lane id=":J0_7_0" index="0" speed="12.19" length="38.65" shape="-8.34,90.80 -15.05,84.82 -21.81,75.23 -26.24,65.29 -25.97,58.26"/>
    </edge>
    <edge id=":J0_8" function="internal">
        <lane id=":J0_8_0" index="0" disallow="pedestrian" speed="3.24" length="3.20" shape="-8.34,90.80 -6.85,87.97"/>
    </edge>
    <edge id=":J0_30" function="internal">
        <lane id=":J0_30_0" index="0" disallow="pedestrian" speed="7.17" length="4.51" shape="-15.05,92.32 -17.11,93.03 -18.80,94.64"/>
    </edge>
    <edge id=":J0_9" function="internal">
        <lane id=":J0_9_0" index="0" disallow="pedestrian" speed="5.57" length="9.00" shape="-4.57,78.62 -6.93,80.41 -7.85,82.10 -7.33,83.67 -5.36,85.14"/>
    </edge>
    <edge id=":J0_10" function="internal">
        <lane id=":J0_10_0" index="0" disallow="pedestrian" speed="13.89" length="21.86" shape="-4.57,78.62 -7.71,80.99 -10.93,84.34 -14.52,88.84 -18.80,94.64"/>
        <lane id=":J0_10_1" index="1" disallow="pedestrian" speed="13.89" length="21.86" shape="-4.57,78.62 -8.09,80.66 -12.16,83.32 -16.63,87.16 -21.38,92.76"/>
    </edge>
    <edge id=":J0_12" function="internal">
        <lane id=":J0_12_0" index="0" disallow="pedestrian" speed="13.89" length="17.80" shape="-4.57,78.62 -11.50,80.73 -19.39,79.36 -21.62,78.13"/>
    </edge>
    <edge id=":J0_31" function="internal">
        <lane id=":J0_31_0" index="0" disallow="pedestrian" speed="13.89" length="20.43" shape="-21.62,78.13 -28.23,74.49 -38.04,66.14"/>
    </edge>
    <edge id=":J0_13" function="internal">
        <lane id=":J0_13_0" index="0" disallow="pedestrian" speed="6.36" length="9.40" shape="-33.55,61.57 -31.99,62.43 -30.20,62.17 -28.20,60.78 -25.97,58.26"/>
    </edge>
    <edge id=":J0_14" function="internal">
        <lane id=":J0_14_0" index="0" disallow="pedestrian" speed="13.89" length="37.40" shape="-33.55,61.57 -26.50,68.71 -20.43,74.68 -13.87,79.99 -5.36,85.14"/>
        <lane id=":J0_14_1" index="1" disallow="pedestrian" speed="13.89" length="37.40" shape="-35.80,63.85 -28.63,71.08 -22.29,77.24 -15.47,82.74 -6.85,87.97"/>
    </edge>
    <edge id=":J0_16" function="internal">
        <lane id=":J0_16_0" index="0" disallow="pedestrian" speed="12.67" length="11.13" shape="-35.80,63.85 -30.51,70.50 -29.15,72.76"/>
    </edge>
    <edge id=":J0_32" function="internal">
        <lane id=":J0_32_0" index="0" disallow="pedestrian" speed="12.67" length="21.82" shape="-29.15,72.76 -25.24,79.31 -21.65,87.62 -21.38,92.76"/>
    </edge>
    <edge id=":J0_17" function="internal">
        <lane id=":J0_17_0" index="0" disallow="pedestrian" speed="11.20" length="21.59" shape="-26.56,88.99 -26.29,86.15 -28.48,81.78 -33.15,75.87 -37.51,71.31"/>
    </edge>
    <edge id=":J0_18" function="internal">
        <lane id=":J0_18_0" index="0" disallow="pedestrian" speed="13.89" length="31.64" shape="-26.56,88.99 -23.17,79.63 -24.09,70.57 -26.09,63.03 -25.97,58.26"/>
    </edge>
    <edge id=":J0_19" function="internal">
        <lane id=":J0_19_0" index="0" disallow="pedestrian" speed="10.31" length="7.29" shape="-23.97,90.87 -19.75,86.31 -18.81,85.79"/>
    </edge>
    <edge id=":J0_33" function="internal">
        <lane id=":J0_33_0" index="0" disallow="pedestrian" speed="11.20" length="4.00" shape="-37.51,71.31 -40.28,68.42"/>
    </edge>
    <edge id=":J0_34" function="internal">
        <lane id=":J0_34_0" index="0" disallow="pedestrian" speed="10.31" length="14.24" shape="-18.81,85.79 -15.24,83.83 -10.44,83.44 -5.36,85.14"/>
    </edge>
    <edge id=":J0_20" function="internal">
        <lane id=":J0_20_0" index="0" disallow="pedestrian" speed="11.20" length="21.59" shape="-26.56,88.99 -26.29,86.15 -28.48,81.78 -33.15,75.87 -37.51,71.31"/>
    </edge>
    <edge id=":J0_21" function="internal">
        <lane id=":J0_21_0" index="0" speed="13.89" length="31.19" shape="-26.56,88.99 -24.41,81.34 -25.19,72.08 -26.51,63.60 -25.97,58.26"/>
    </edge>
    <edge id=":J0_22" function="internal">
        <lane id=":J0_22_0" index="0" disallow="pedestrian" speed="9.76" length="15.18" shape="-23.97,90.87 -20.55,87.47 -16.56,85.85 -11.99,86.01 -10.62,86.54"/>
    </edge>
    <edge id=":J0_23" function="internal">
        <lane id=":J0_23_0" index="0" disallow="pedestrian" speed="3.24" length="3.20" shape="-23.97,90.87 -21.38,92.76"/>
    </edge>
    <edge id=":J0_35" function="internal">
        <lane id=":J0_35_0" index="0" disallow="pedestrian" speed="11.20" length="4.00" shape="-37.51,71.31 -40.28,68.42"/>
    </edge>
    <edge id=":J0_36" function="internal">
        <lane id=":J0_36_0" index="0" disallow="pedestrian" speed="9.76" length="4.03" shape="-10.62,86.54 -6.85,87.97"/>
    </edge>
    <edge id=":J0_24" function="internal">
        <lane id=":J0_24_0" index="0" disallow="pedestrian" speed="11.20" length="21.59" shape="-26.56,88.99 -26.29,86.15 -28.48,81.78 -33.15,75.87 -37.51,71.31"/>
    </edge>
    <edge id=":J0_25" function="internal">
        <lane id=":J0_25_0" index="0" speed="13.89" length="31.19" shape="-26.56,88.99 -24.41,81.34 -25.19,72.08 -26.51,63.60 -25.97,58.26"/>
    </edge>
    <edge id=":J0_26" function="internal">
        <lane id=":J0_26_0" index="0" disallow="pedestrian" speed="9.76" length="15.18" shape="-23.97,90.87 -20.55,87.47 -16.56,85.85 -11.99,86.01 -10.62,86.54"/>
    </edge>
    <edge id=":J0_27" function="internal">
        <lane id=":J0_27_0" index="0" disallow="pedestrian" speed="3.24" length="3.20" shape="-23.97,90.87 -21.38,92.76"/>
    </edge>
    <edge id=":J0_37" function="internal">
        <lane id=":J0_37_0" index="0" disallow="pedestrian" speed="11.20" length="4.00" shape="-37.51,71.31 -40.28,68.42"/>
    </edge>
    <edge id=":J0_38" function="internal">
        <lane id=":J0_38_0" index="0" disallow="pedestrian" speed="9.76" length="4.03" shape="-10.62,86.54 -6.85,87.97"/>
    </edge>
    <edge id=":J0_c0" function="crossing" crossingEdges="E5 -E5">
        <lane id=":J0_c0_0" index="0" allow="pedestrian" speed="2.78" length="12.80" width="4.00" shape="-6.39,82.79 -12.34,94.12"/>
    </edge>
    <edge id=":J0_c1" function="crossing" crossingEdges="E6 -E6">
        <lane id=":J0_c1_0" index="0" allow="pedestrian" speed="2.78" length="12.80" width="4.00" shape="-39.98,70.96 -31.01,61.83"/>
    </edge>
    <edge id=":J0_c2" function="crossing" crossingEdges="E4 -E4">
        <lane id=":J0_c2_0" index="0" allow="pedestrian" speed="2.78" length="12.80" width="4.00" shape="-16.32,93.96 -26.67,86.43"/>
    </edge>
    <edge id=":J0_w0" function="walkingarea">
        <lane id=":J0_w0_0" index="0" allow="pedestrian" speed="2.78" length="4.10" width="4.00" shape="-17.50,95.58 -15.88,96.76 -11.50,96.83 -10.57,95.05 -12.08,94.38 -13.44,94.01 -14.67,93.94 -15.76,94.18 -16.70,94.73"/>
    </edge>
    <edge id=":J0_w1" function="walkingarea">
        <lane id=":J0_w1_0" index="0" allow="pedestrian" speed="2.78" length="0.10" width="3.20" shape="-10.57,95.05 -9.08,92.22 -7.59,89.39"/>
    </edge>
    <edge id=":J0_w2" function="walkingarea">
        <lane id=":J0_w2_0" index="0" allow="pedestrian" speed="2.78" length="21.35" width="4.00" shape="-4.62,83.72 -3.69,81.95 -3.74,79.99 -5.39,77.25 -24.69,59.22 -27.24,57.29 -31.03,59.00 -32.43,60.43 -27.00,65.98 -23.04,70.24 -19.70,73.68 -16.09,76.76 -11.36,79.95"/>
    </edge>
    <edge id=":J0_w3" function="walkingarea">
        <lane id=":J0_w3_0" index="0" allow="pedestrian" speed="2.78" length="14.84" width="4.00" shape="-41.40,69.56 -42.80,70.99 -29.47,86.87 -27.85,88.05 -27.62,86.70 -28.38,84.65 -30.14,81.92 -32.90,78.49 -36.65,74.37"/>
    </edge>
    <edge id=":J0_w4" function="walkingarea">
        <lane id=":J0_w4_0" index="0" allow="pedestrian" speed="2.78" length="0.10" width="3.20" shape="-27.85,88.05 -25.26,89.93 -22.68,91.81 -27.85,88.05 -25.26,89.93 -22.68,91.81"/>
    </edge>
    <edge id=":J1_0" function="internal">
        <lane id=":J1_0_0" index="0" speed="9.23" length="11.74" shape="5.37,41.38 6.74,41.53 8.79,42.65 11.54,44.73 14.97,47.77"/>
    </edge>
    <edge id=":J1_1" function="internal">
        <lane id=":J1_1_0" index="0" speed="4.35" length="6.05" shape="12.78,50.11 11.18,48.86 10.20,48.70 9.85,49.63 10.13,51.65"/>
    </edge>
    <edge id=":J1_w0" function="walkingarea">
        <lane id=":J1_w0_0" index="0" allow="pedestrian" speed="2.78" length="7.79" width="3.20" shape="4.88,39.86 5.86,42.90 6.94,44.91 7.49,46.98 7.98,49.15 8.36,50.97 8.58,52.01 11.69,51.28 16.06,46.60 13.46,44.28 11.16,42.44 9.15,41.07 7.43,40.19 6.01,39.78"/>
    </edge>
    <edge id=":J2_0" function="internal">
        <lane id=":J2_0_0" index="0" speed="6.07" length="8.43" shape="42.08,70.11 40.43,71.79 38.69,72.46 36.86,72.12 34.93,70.78"/>
    </edge>
    <edge id=":J2_1" function="internal">
        <lane id=":J2_1_0" index="0" speed="3.90" length="2.81" shape="37.11,68.44 37.76,68.89 38.37,69.00 38.95,68.78 39.50,68.22"/>
    </edge>
    <edge id=":J2_w0" function="walkingarea">
        <lane id=":J2_w0_0" index="0" allow="pedestrian" speed="2.78" length="4.41" width="3.20" shape="43.37,71.06 38.21,67.27 33.84,71.95 35.57,73.29 37.24,74.04 38.86,74.19 40.42,73.74 41.92,72.70"/>
    </edge>
    <edge id=":J3_0" function="internal">
        <lane id=":J3_0_0" index="0" speed="3.90" length="2.96" shape="70.48,34.55 69.84,34.03 69.21,33.87 68.60,34.09 68.02,34.69"/>
    </edge>
    <edge id=":J3_1" function="internal">
        <lane id=":J3_1_0" index="0" speed="6.08" length="8.89" shape="65.44,32.80 67.19,31.01 69.01,30.34 70.89,30.80 72.84,32.38"/>
    </edge>
    <edge id=":J3_w0" function="walkingarea">
        <lane id=":J3_w0_0" index="0" allow="pedestrian" speed="2.78" length="4.49" width="3.20" shape="69.31,35.64 74.01,31.30 72.27,29.73 70.57,28.82 68.91,28.58 67.28,29.01 65.70,30.10 64.15,31.86 69.31,35.64"/>
    </edge>
    <edge id=":J4_w0" function="walkingarea">
        <lane id=":J4_w0_0" index="0" allow="pedestrian" speed="2.78" length="3.20" width="3.20" shape="92.32,55.85 89.97,58.02 94.67,53.68 92.32,55.85"/>
    </edge>
    <edge id=":J5_0" function="internal">
        <lane id=":J5_0_0" index="0" disallow="pedestrian" speed="4.77" length="6.40" shape="-58.70,149.47 -66.46,143.82"/>
        <lane id=":J5_0_1" index="1" disallow="pedestrian" speed="3.24" length="6.40" shape="-61.29,147.59 -63.87,145.71"/>
    </edge>
    <edge id=":J5_2" function="internal">
        <lane id=":J5_2_0" index="0" disallow="pedestrian" speed="4.08" length="4.80" shape="-61.29,147.59 -66.46,143.82"/>
        <lane id=":J5_2_1" index="1" disallow="pedestrian" speed="3.24" length="4.80" shape="-61.29,147.59 -63.87,145.71"/>
    </edge>
    <edge id=":J5_w0" function="walkingarea">
        <lane id=":J5_w0_0" index="0" allow="pedestrian" speed="2.78" length="8.88" width="3.20" shape="-67.75,142.88 -69.37,141.71 -62.58,146.65 -65.17,144.77 -67.75,142.88 -62.58,146.65 -65.17,144.77 -67.75,142.88 -55.79,151.59 -57.40,150.41"/>
    </edge>
    <edge id=":J6_0" function="internal">
        <lane id=":J6_0_0" index="0" disallow="pedestrian" speed="4.77" length="6.40" shape="82.48,131.23 78.02,139.73"/>
        <lane id=":J6_0_1" index="1" disallow="pedestrian" speed="3.24" length="6.40" shape="80.99,134.06 79.50,136.90"/>
    </edge>
    <edge id=":J6_w0" function="walkingarea">
        <lane id=":J6_w0_0" index="0" allow="pedestrian" speed="2.78" length="9.87" width="3.20" shape="77.27,141.15 76.34,142.92 80.25,135.48 78.76,138.31 77.27,141.15 84.15,128.04 83.22,129.81"/>
    </edge>
    <edge id=":J7_w0" function="walkingarea">
        <lane id=":J7_w0_0" index="0" allow="pedestrian" speed="2.78" length="14.80" width="2.00" shape="-66.41,27.06 -65.01,25.63 -76.78,37.62 -75.38,36.19"/>
    </edge>

    <edge id="-E0" from="J1" to="J0" priority="-1" shape="6.19,41.77 10.99,62.37 0.86,73.51 -17.23,84.33">
        <lane id="-E0_0" index="0" speed="13.89" length="35.13" shape="10.13,51.65 12.74,62.82 1.88,74.76 -4.57,78.62"/>
    </edge>
    <edge id="-E1" from="J1" to="J2" priority="-1">
        <lane id="-E1_0" index="0" speed="13.89" length="30.30" shape="14.97,47.77 37.11,68.44"/>
    </edge>
    <edge id="-E2" from="J2" to="J3" priority="-1">
        <lane id="-E2_0" index="0" speed="13.89" length="43.90" shape="39.50,68.22 65.44,32.80"/>
    </edge>
    <edge id="-E3" from="J3" to="J4" priority="-1">
        <lane id="-E3_0" index="0" speed="13.89" length="30.46" shape="72.84,32.38 93.49,54.77"/>
    </edge>
    <edge id="-E4" from="J5" to="J0" priority="-1">
        <lane id="-E4_0" index="0" allow="pedestrian" speed="13.89" length="67.82" width="2.00" shape="-68.56,142.29 -28.66,87.46"/>
        <lane id="-E4_1" index="1" disallow="pedestrian" speed="13.89" length="67.82" shape="-66.46,143.82 -26.56,88.99"/>
        <lane id="-E4_2" index="2" disallow="pedestrian" speed="13.89" length="67.82" shape="-63.87,145.71 -23.97,90.87"/>
    </edge>
    <edge id="-E40" from="J5" to="J0" priority="-1">
        <lane id="-E40_0" index="0" speed="13.89" length="67.82" shape="-66.46,143.82 -26.56,88.99"/>
        <lane id="-E40_1" index="1" speed="13.89" length="67.82" shape="-63.87,145.71 -23.97,90.87"/>
    </edge>
    <edge id="-E41" from="J5" to="J0" priority="-1">
        <lane id="-E41_0" index="0" speed="13.89" length="67.82" shape="-66.46,143.82 -26.56,88.99"/>
        <lane id="-E41_1" index="1" speed="13.89" length="67.82" shape="-63.87,145.71 -23.97,90.87"/>
    </edge>
    <edge id="-E5" from="J6" to="J0" priority="-1">
        <lane id="-E5_0" index="0" allow="pedestrian" speed="13.89" length="99.20" width="2.00" shape="76.81,142.03 -11.03,95.94"/>
        <lane id="-E5_1" index="1" disallow="pedestrian" speed="13.89" length="99.20" shape="78.02,139.73 -9.82,93.64"/>
        <lane id="-E5_2" index="2" disallow="pedestrian" speed="13.89" length="99.20" shape="79.50,136.90 -8.34,90.80"/>
    </edge>
    <edge id="-E50" from="J6" to="J0" priority="-1">
        <lane id="-E50_0" index="0" speed="13.89" length="99.20" shape="78.02,139.73 -9.82,93.64"/>
        <lane id="-E50_1" index="1" speed="13.89" length="99.20" shape="79.50,136.90 -8.34,90.80"/>
    </edge>
    <edge id="-E6" from="J7" to="J0" priority="-1">
        <lane id="-E6_0" index="0" allow="pedestrian" speed="13.89" length="47.62" width="2.00" shape="-65.71,26.35 -31.73,59.72"/>
        <lane id="-E6_1" index="1" disallow="pedestrian" speed="13.89" length="47.62" shape="-67.53,28.20 -33.55,61.57"/>
        <lane id="-E6_2" index="2" disallow="pedestrian" speed="13.89" length="47.62" shape="-69.78,30.49 -35.80,63.85"/>
    </edge>
    <edge id="E0" from="J0" to="J1" priority="-1" shape="-16.64,84.71 1.45,73.90 11.58,62.75 6.77,42.15">
        <lane id="E0_0" index="0" speed="13.89" length="37.05" customShape="1" shape="-25.97,58.26 -19.10,49.21 5.37,41.38"/>
    </edge>
    <edge id="E1" from="J2" to="J1" priority="-1">
        <lane id="E1_0" index="0" speed="13.89" length="30.30" shape="34.93,70.78 12.78,50.11"/>
    </edge>
    <edge id="E2" from="J3" to="J2" priority="-1">
        <lane id="E2_0" index="0" speed="13.89" length="43.90" shape="68.02,34.69 42.08,70.11"/>
    </edge>
    <edge id="E3" from="J4" to="J3" priority="-1">
        <lane id="E3_0" index="0" speed="13.89" length="30.46" shape="91.14,56.94 70.48,34.55"/>
    </edge>
    <edge id="E4" from="J0" to="J5" priority="-1">
        <lane id="E4_0" index="0" allow="pedestrian" speed="13.89" length="67.82" width="2.00" shape="-16.69,96.17 -56.60,151.00"/>
        <lane id="E4_1" index="1" disallow="pedestrian" speed="13.89" length="67.82" shape="-18.80,94.64 -58.70,149.47"/>
        <lane id="E4_2" index="2" disallow="pedestrian" speed="13.89" length="67.82" shape="-21.38,92.76 -61.29,147.59"/>
    </edge>
    <edge id="E5" from="J0" to="J6" priority="-1">
        <lane id="E5_0" index="0" allow="pedestrian" speed="13.89" length="99.20" width="2.00" shape="-4.15,82.83 83.69,128.93"/>
        <lane id="E5_1" index="1" disallow="pedestrian" speed="13.89" length="99.20" shape="-5.36,85.14 82.48,131.23"/>
        <lane id="E5_2" index="2" disallow="pedestrian" speed="13.89" length="99.20" shape="-6.85,87.97 80.99,134.06"/>
    </edge>
    <edge id="E6" from="J0" to="J7" priority="-1">
        <lane id="E6_0" index="0" allow="pedestrian" speed="13.89" length="47.62" width="2.00" shape="-42.10,70.28 -76.08,36.91"/>
        <lane id="E6_1" index="1" disallow="pedestrian" speed="13.89" length="47.62" shape="-40.28,68.42 -74.26,35.05"/>
        <lane id="E6_2" index="2" disallow="pedestrian" speed="13.89" length="47.62" shape="-38.04,66.14 -72.02,32.77"/>
    </edge>

    <tlLogic id="J0" type="static" programID="0" offset="0">
        <phase duration="7"  state="gGGgrrrrrrrrrGGGgrrrrrrrrrrrrrG"/>
        <phase duration="5"  state="gGGgrrrrrrrrrGGGgrrrrrrrrrrrrrr"/>
        <phase duration="3"  state="yyyyrrrrrrrrryyyyrrrrrrrrrrrrrr"/>
        <phase duration="1"  state="rrrrrrrrrrrrrrrrrrrrrrrrrrrrrrr"/>
        <phase duration="8"  state="rrrrrrrrrgGGgrrrrgGgrrrrrrrrGGr"/>
        <phase duration="5"  state="rrrrrrrrrgGGgrrrrgGgrrrrrrrrrrr"/>
        <phase duration="3"  state="rrrrrrrrryyygrrrryygrrrrrrrrrrr"/>
        <phase duration="6"  state="rrrrrrrrrrrrGrrrrrrGrrrrrrrrrrr"/>
        <phase duration="3"  state="rrrrrrrrrrrryrrrrrryrrrrrrrrrrr"/>
        <phase duration="8"  state="rrrrrrrrrrrrrrrrrrrrrrrrgGGgrGG"/>
        <phase duration="5"  state="rrrrrrrrrrrrrrrrrrrrrrrrgGGgrrr"/>
        <phase duration="3"  state="rrrrrrrrrrrrrrrrrrrrrrrryyyyrrr"/>
        <phase duration="8"  state="rrrrgGGGgrrrrrrrrrrrrrrrrrrrGrG"/>
        <phase duration="5"  state="rrrrgGGGgrrrrrrrrrrrrrrrrrrrrrr"/>
        <phase duration="3"  state="rrrryyyyyrrrrrrrrrrrrrrrrrrrrrr"/>
        <phase duration="1"  state="rrrrrrrrrrrrrrrrrrrrrrrrrrrrrrr"/>
        <phase duration="8"  state="rrrrrrrrrrrrrrrrrrrrgGGgrrrrrGG"/>
        <phase duration="5"  state="rrrrrrrrrrrrrrrrrrrrgGGgrrrrrrr"/>
        <phase duration="3"  state="rrrrrrrrrrrrrrrrrrrryyyyrrrrrrr"/>
    </tlLogic>

    <junction id="J0" type="traffic_light" x="-17.23" y="84.33" incLanes="-E5_0 -E5_1 -E5_2 -E50_0 -E50_1 -E0_0 -E6_0 -E6_1 -E6_2 -E4_0 -E4_1 -E4_2 -E40_0 -E40_1 -E41_0 -E41_1 :J0_w2_0 :J0_w3_0 :J0_w0_0" intLanes=":J0_28_0 :J0_1_0 :J0_1_1 :J0_29_0 :J0_30_0 :J0_5_0 :J0_5_1 :J0_7_0 :J0_8_0 :J0_9_0 :J0_10_0 :J0_10_1 :J0_31_0 :J0_13_0 :J0_14_0 :J0_14_1 :J0_32_0 :J0_33_0 :J0_18_0 :J0_34_0 :J0_35_0 :J0_21_0 :J0_36_0 :J0_23_0 :J0_37_0 :J0_25_0 :J0_38_0 :J0_27_0 :J0_c0_0 :J0_c1_0 :J0_c2_0" shape="-11.50,96.83 -3.69,81.95 -4.48,81.32 -4.59,81.00 -4.50,80.67 -4.22,80.33 -3.74,79.99 -5.39,77.25 -11.77,79.26 -17.74,78.18 -22.59,74.75 -25.64,69.70 -26.19,63.77 -23.54,57.70 -28.40,58.81 -29.23,59.54 -29.66,59.66 -30.11,59.60 -30.56,59.39 -31.03,59.00 -42.80,70.99 -38.40,75.39 -34.87,79.09 -32.21,82.09 -30.42,84.38 -29.51,85.98 -29.47,86.87 -15.88,96.76 -14.87,96.05 -14.20,95.97 -13.41,96.07 -12.51,96.36">
        <request index="0"  response="1010000000000000000000000010000" foes="1011000100000000000110000010000" cont="1"/>
        <request index="1"  response="0110101010110100001000000010000" foes="0110111011111110001110001110000" cont="0"/>
        <request index="2"  response="0110101010110100001000000010000" foes="0110111011111110001110001110000" cont="0"/>
        <request index="3"  response="0010100010010001111000000010000" foes="0010110011011001111110011110000" cont="1"/>
        <request index="4"  response="1000000000000000000110000001111" foes="1001000100000000000110000001111" cont="1"/>
        <request index="5"  response="0100111011111110001000000001110" foes="0100111011111110001110000001110" cont="0"/>
        <request index="6"  response="0100111011111110001000000001110" foes="0100111011111110001110000001110" cont="0"/>
        <request index="7"  response="0000110011011001111110000001000" foes="0000110011011001111110000001000" cont="0"/>
        <request index="8"  response="0010100010000001100000000000000" foes="0010100010000001100000000000000" cont="0"/>
        <request index="9"  response="0010000000000001100000000000000" foes="0010000000010001100000000000000" cont="0"/>
        <request index="10" response="1000100010000011100000001111111" foes="1001100110010011100000011111111" cont="0"/>
        <request index="11" response="1000100010000011100000001111111" foes="1001100110010011100000011111111" cont="0"/>
        <request index="12" response="0100010001001011100000011101110" foes="0100010001001011100000011101110" cont="1"/>
        <request index="13" response="0100000000000000000000000000000" foes="0100010001001000000000010001000" cont="0"/>
        <request index="14" response="0110100010010000001000000000000" foes="0110110011011000001111110001000" cont="0"/>
        <request index="15" response="0110100010010000001000000000000" foes="0110110011011000001111110001000" cont="0"/>
        <request index="16" response="1100100010010000001000000000110" foes="1101110111011000001110001100110" cont="1"/>
        <request index="17" response="1100001000100000000000001100110" foes="1100001000100000000000001100110" cont="1"/>
        <request index="18" response="1000001000100011110000000001110" foes="1000011001100011111000011101110" cont="0"/>
        <request index="19" response="1010111011100011100111001101110" foes="1010111011100011100111011101110" cont="1"/>
        <request index="20" response="0100001000011100000000001100110" foes="0100001000011100000000001100110" cont="1"/>
        <request index="21" response="0000001000011011111000000001110" foes="0000011000011011111000011101110" cont="0"/>
        <request index="22" response="0010111000000011100110001101110" foes="0010111000000011100110111101110" cont="1"/>
        <request index="23" response="1000111000000010000110000000000" foes="1001111000000010000110000000000" cont="0"/>
        <request index="24" response="0100000111111100000000001100110" foes="0100000111111100000000001100110" cont="1"/>
        <request index="25" response="0000000011011011111000000001110" foes="0000000111011011111000011101110" cont="0"/>
        <request index="26" response="0010000110000011100110001101110" foes="0010000110000011100110111101110" cont="1"/>
        <request index="27" response="1000000100000010000110000000000" foes="1000000100000010000110000000000" cont="0"/>
        <request index="28" response="0000000000000000000000000000000" foes="0000100010010001100001100001111" cont="0"/>
        <request index="29" response="0000000000000000000000000000000" foes="0000001000100111111000001100110" cont="0"/>
        <request index="30" response="0000000000000000000000000000000" foes="0001000100011110000110000010001" cont="0"/>
    </junction>
    <junction id="J1" type="priority" x="6.19" y="41.77" incLanes="E0_0 E1_0" intLanes=":J1_0_0 :J1_1_0" shape="4.88,39.86 5.86,42.90 6.94,44.91 7.49,46.98 7.98,49.15 8.58,52.01 11.69,51.28 16.06,46.60 13.46,44.28 11.16,42.44 9.15,41.07 7.43,40.19 6.01,39.78">
        <request index="0" response="00" foes="00" cont="0"/>
        <request index="1" response="00" foes="00" cont="0"/>
    </junction>
    <junction id="J2" type="priority" x="38.66" y="72.07" incLanes="E2_0 -E1_0" intLanes=":J2_0_0 :J2_1_0" shape="43.37,71.06 38.21,67.27 33.84,71.95 35.57,73.29 37.24,74.04 38.86,74.19 40.42,73.74 41.92,72.70">
        <request index="0" response="00" foes="00" cont="0"/>
        <request index="1" response="00" foes="00" cont="0"/>
    </junction>
    <junction id="J3" type="priority" x="69.02" y="30.61" incLanes="E3_0 -E2_0" intLanes=":J3_0_0 :J3_1_0" shape="69.31,35.64 74.01,31.30 72.27,29.73 70.57,28.82 68.91,28.58 67.28,29.01 65.70,30.10 64.15,31.86">
        <request index="0" response="00" foes="00" cont="0"/>
        <request index="1" response="00" foes="00" cont="0"/>
    </junction>
    <junction id="J4" type="dead_end" x="92.32" y="55.85" incLanes="-E3_0" intLanes="" shape="92.32,55.85 94.67,53.68 92.32,55.85"/>
    <junction id="J5" type="priority" x="-62.58" y="146.65" incLanes="E4_0 E4_1 E4_2" intLanes=":J5_0_0 :J5_0_1 :J5_2_0 :J5_2_1" shape="-62.58,146.65 -55.79,151.59 -62.58,146.65">
        <request index="0" response="0000" foes="0000" cont="0"/>
        <request index="1" response="0000" foes="0000" cont="0"/>
        <request index="2" response="0000" foes="0000" cont="0"/>
        <request index="3" response="0000" foes="0000" cont="0"/>
    </junction>
    <junction id="J6" type="priority" x="80.25" y="135.48" incLanes="E5_0 E5_1 E5_2" intLanes=":J6_0_0 :J6_0_1" shape="84.15,128.04 80.25,135.48 77.27,141.15">
        <request index="0" response="00" foes="00" cont="0"/>
        <request index="1" response="00" foes="00" cont="0"/>
    </junction>
    <junction id="J7" type="dead_end" x="-70.90" y="31.63" incLanes="E6_0 E6_1 E6_2" intLanes="" shape="-70.90,31.63 -76.78,37.62 -70.90,31.63"/>

    <junction id=":J0_28_0" type="internal" x="-15.05" y="92.32" incLanes=":J0_0_0" intLanes=":J0_4_0 :J0_10_0 :J0_10_1 :J0_16_0 :J0_23_0 :J0_27_0 :J0_c0_0 :J0_c2_0"/>
    <junction id=":J0_29_0" type="internal" x="-14.89" y="84.96" incLanes=":J0_3_0 -E6_1 -E6_2" intLanes=":J0_4_0 :J0_5_0 :J0_5_1 :J0_7_0 :J0_10_0 :J0_10_1 :J0_12_0 :J0_13_0 :J0_14_0 :J0_14_1 :J0_18_0 :J0_19_0 :J0_21_0 :J0_22_0 :J0_25_0 :J0_26_0 :J0_c0_0"/>
    <junction id=":J0_30_0" type="internal" x="-15.05" y="92.32" incLanes=":J0_4_0" intLanes=":J0_0_0 :J0_1_0 :J0_1_1 :J0_3_0 :J0_10_0 :J0_10_1 :J0_16_0 :J0_23_0 :J0_27_0 :J0_c2_0"/>
    <junction id=":J0_31_0" type="internal" x="-21.62" y="78.13" incLanes=":J0_12_0 -E4_1" intLanes=":J0_1_0 :J0_1_1 :J0_3_0 :J0_5_0 :J0_5_1 :J0_7_0 :J0_14_0 :J0_14_1 :J0_16_0 :J0_17_0 :J0_18_0 :J0_20_0 :J0_21_0 :J0_24_0 :J0_25_0 :J0_c1_0"/>
    <junction id=":J0_32_0" type="internal" x="-29.15" y="72.76" incLanes=":J0_16_0 -E5_1 -E5_2" intLanes=":J0_0_0 :J0_1_0 :J0_1_1 :J0_4_0 :J0_5_0 :J0_5_1 :J0_10_0 :J0_10_1 :J0_12_0 :J0_18_0 :J0_19_0 :J0_21_0 :J0_22_0 :J0_23_0 :J0_25_0 :J0_26_0 :J0_27_0 :J0_c1_0 :J0_c2_0"/>
    <junction id=":J0_33_0" type="internal" x="-37.51" y="71.31" incLanes=":J0_17_0" intLanes=":J0_1_0 :J0_1_1 :J0_5_0 :J0_5_1 :J0_12_0 :J0_20_0 :J0_24_0 :J0_c1_0 :J0_c2_0"/>
    <junction id=":J0_34_0" type="internal" x="-18.81" y="85.79" incLanes=":J0_19_0 -E0_0" intLanes=":J0_1_0 :J0_1_1 :J0_3_0 :J0_5_0 :J0_5_1 :J0_7_0 :J0_8_0 :J0_9_0 :J0_10_0 :J0_10_1 :J0_14_0 :J0_14_1 :J0_16_0 :J0_20_0 :J0_21_0 :J0_22_0 :J0_24_0 :J0_25_0 :J0_26_0 :J0_c0_0 :J0_c2_0"/>
    <junction id=":J0_35_0" type="internal" x="-37.51" y="71.31" incLanes=":J0_20_0" intLanes=":J0_1_0 :J0_1_1 :J0_5_0 :J0_5_1 :J0_12_0 :J0_17_0 :J0_18_0 :J0_19_0 :J0_24_0 :J0_c1_0"/>
    <junction id=":J0_36_0" type="internal" x="-10.62" y="86.54" incLanes=":J0_22_0" intLanes=":J0_1_0 :J0_1_1 :J0_3_0 :J0_5_0 :J0_5_1 :J0_7_0 :J0_8_0 :J0_9_0 :J0_10_0 :J0_10_1 :J0_14_0 :J0_14_1 :J0_16_0 :J0_19_0 :J0_24_0 :J0_25_0 :J0_26_0 :J0_c0_0"/>