<?xml version="1.0" encoding="UTF-8"?>

<!-- generated on 2023-06-16 10:05:04 by Eclipse SUMO netedit Version 1.17.0
-->

<additional xmlns:xsi="http://www.w3.org/2001/XMLSchema-instance" xsi:noNamespaceSchemaLocation="http://sumo.dlr.de/xsd/additional_file.xsd">
    <!-- MeanDataLanes -->
    <laneData id="ld_0" file="ld_0.xml"/>
</additional>
