<configuration>

<input>
<net-file value="t2.net.xml"/>
<route-files value="Demo.rou.xml"/>
</input>
<time>
<begin value="0"/>
<end value="100000"/>
</time>

</configuration>